%nprocshared=4
%mem=300MW
#p 6-31g(d) um062x stable=opt

CAT-POST-O7-spg

0 2
 C                 -0.57714900    0.00000000   -0.01357400
 H                 -1.00797500   -0.91139600   -0.45754900
 H                 -1.00797500    0.91139600   -0.45754700
 H                 -0.87203600   -0.00000100    1.05679500
 O                  0.79386000    0.00000000   -0.00753200


