%nprocshared=4
%mem=300MW
#p def2tzvpp um062x pop=(full,nboread) stable=opt

CAT-PRE-O8-sp-

-1 2
 C                  0.83641000    0.01317800    1.28757200
 H                  0.58418500    0.87889300    1.90407200
 H                  0.63065100   -0.90220900    1.85695900
 O                  2.18787900    0.13803300    0.93650800
 C                 -0.11992900    0.01250800    0.07324300
 Cl                -1.80458300   -0.13863800    0.69240300
 Cl                 0.04597200    1.51727700   -0.88171500
 Cl                 0.25910200   -1.41242700   -0.98063400
 H                  2.47488700   -0.66068500    0.47109800

$nbo bndidx $end
