%nprocshared=4
%mem=300MW
#p 6-31g(d) um062x stable=opt

CAT-POST-O8-spg

0 2
 C                  0.84799800    0.00018300    1.29960200
 H                  0.60744500    0.88062300    1.92449000
 H                  0.60743400   -0.88004200    1.92479400
 O                  2.17341200    0.00014400    1.02697900
 C                 -0.08608000   -0.00001300    0.05972100
 Cl                -1.78783700    0.00188000    0.66118700
 Cl                 0.21355500    1.46780300   -0.92646600
 Cl                 0.21112400   -1.46984600   -0.92419400


