%nprocshared=4
%mem=300MW
#p 6-31g(d) um062x scrf=(smd,solvent=acetonitrile) stable=opt

CAT-PRE-O7-sps

0 1
 C                 -0.66831700   -0.02065800    0.00000600
 H                 -1.03084300   -0.54563600    0.89453100
 H                 -1.03085300   -0.54578100   -0.89442900
 H                 -1.08327300    0.98954000   -0.00007400
 O                  0.74995800    0.12240800   -0.00001300
 H                  1.15521000   -0.75344400    0.00004000


