%nprocshared=4
%mem=300MW
#p def2tzvpp um062x pop=(full,nboread) stable=opt

SUB-POST-S10-P1-sp0

0 2
 C                 -1.89100700   -0.99219700   -0.00004700
 C                 -0.54078300   -1.31090200   -0.00009300
 C                  0.46266400   -0.29590900   -0.00002800
 C                  0.01577900    1.05884900    0.00009100
 C                 -1.33947800    1.36701200    0.00013700
 C                 -2.30459400    0.34963600    0.00006900
 H                 -2.63174400   -1.78709900   -0.00010200
 H                 -0.22930100   -2.35252000   -0.00018300
 H                  0.74588800    1.86212500    0.00014700
 H                 -1.65221500    2.40770300    0.00023000
 H                 -3.36173300    0.59725000    0.00010500
 C                  1.83562100   -0.64692900   -0.00007100
 H                  2.07895300   -1.70667700   -0.00015800
 C                  2.96714200    0.33312600   -0.00004600
 H                  2.94312100    0.99162100    0.88073400
 H                  3.93202200   -0.18037900   -0.00021300
 H                  2.94294000    0.99186800   -0.88063400

$nbo bndidx $end
