%nprocshared=4
%mem=300MW
#p 6-31g(d) um062x scrf=(smd,solvent=acetonitrile) stable=opt

SUB-PRE-S04-sps

0 1
 C                 -3.29578400   -0.93357400    0.00026700
 C                 -2.20873500    0.11369100    0.00014600
 H                 -4.26982400   -0.44487100    0.00065800
 H                 -3.19968000   -1.57420500   -0.88169100
 H                 -3.19913800   -1.57447500    0.88197400
 C                  0.15140700    0.44909300   -0.00049100
 H                  0.08639800    1.09183200   -0.88470500
 H                  0.08692500    1.09136200    0.88411300
 C                  1.41833800   -0.39170500   -0.00094700
 C                  2.68735000    0.47247900   -0.00043700
 H                  1.41398200   -1.04653800   -0.88184400
 H                  1.41393700   -1.04730500    0.87937300
 C                  3.97389200   -0.36102700    0.00104000
 H                  2.68096300    1.13177100   -0.87909400
 H                  2.67959800    1.13259700    0.87758900
 H                  4.02700000   -1.00566200    0.88612100
 H                  4.02853800   -1.00656000   -0.88328900
 O                 -2.38967000    1.31492400    0.00053400
 O                 -0.98152600   -0.45507300   -0.00030500
 H                  4.86206900    0.27949800    0.00150500


